.model BC548C   NPN(Is=7.049f Xti=3 Eg=1.11 Vaf=54.76 Bf=543.1 Ise=78.17f
+               Ne=1.479 Ikf=24.96m Xtb=1.5 Br=1.2 Isc=27.51f Nc=1.775
+               Ikr=3.321 Rc=.9706 Cjc=4.25p Mjc=.3147 Vjc=.5697 Fc=.5
+               Cje=11.5p Mje=.6715 Vje=.5 Tr=10n Tf=410.7p Itf=1.12 Xtf=26.19
+               Vtf=10)
*		Fairchild			case=TO92
*		2-18-98
*$
