.MODEL bd437t npn
+IS=8.34782e-16 BF=165.443 NF=0.926448 VAF=10
+IKF=10 ISE=7.27965e-13 NE=3.8389 BR=5.48519
+NR=0.75 VAR=23.5414 IKR=3.31211 ISC=2.63503e-16
+NC=1.13181 RB=11.9793 IRB=0.1 RBM=0.174073
+RE=0.0001 RC=0.001 XTB=2.18586 XTI=4
+EG=1.206 CJE=7.57559e-09 VJE=0.4 MJE=0.717544
+TF=1e-08 XTF=1.778 VTF=1.0303 ITF=0.482967
+CJC=3.17585e-10 VJC=0.600305 MJC=0.409491 XCJC=0.799462
+FC=0.799978 CJS=0 VJS=0.75 MJS=0.5
+TR=1e-07 PTF=0 KF=0 AF=1
* Model generated on Feb 22, 2004
* Model format: SPICE3
