*******************************************
* Model Generated by ON Discrete Eval Lab *
*    Copyright(c) ON Semiconductor        *
*         All Rights Reserved             *
*      UNPUBLISHED LICENSED SOFTWARE      *
*     Contains Proprietary Information    *
*                                         *
*   Commercial Use or Resale Restricted   *
*******************************************
* Model generated on Feb 19, 2003
* MODEL FORMAT: PSpice
*
.MODEL J2n5485 njf
+VTO=-2.3888 BETA=0.00110073 LAMBDA=0.0108464 RD=3.58556 
+RS=3.44889 IS=1.44179E-14 CGS=430.467E-15 CGD=433.667E-15 
+PB=1.160107 FC=0.5 KF=8E-18 AF=1

