*******************************************
* Model Generated by ON Discrete Eval Lab *
*    Copyright(c) ON Semiconductor        *
*         All Rights Reserved             *
*      UNPUBLISHED LICENSED SOFTWARE      *
*     Contains Proprietary Information    *
*                                         *
*   Commercial Use or Resale Restricted   *
*******************************************
* Model generated on Feb 19, 2003
* MODEL FORMAT: PSpice
*
.MODEL J2n5486 njf
+VTO=-3.91171 BETA=0.00078986 LAMBDA=0.0104371 RD=3.58556
+RS=3.44889 IS=1.44179E-14 CGS=430.467E-15 CGD=433.667E-15 
+PB=1.160107 FC=0.5 KF=6E-18 AF=1

