.model Q2N2222 npn ( IS=2.48E-13 VAF=73.9 BF=400 IKF=0.1962 NE=1.2069
+ ISE=3.696E-14 IKR=0.02 ISC=5.00E-09 NC=2 NR=1 BR=5 RC=0.3 CJC=7.00E-12
+ FC=0.5 MJC=0.5 VJC=0.5 CJE=1.80E-11 MJE=0.5 VJE=1 TF=4.00E-10
+ ITF=2 VTF=10 XTF=10 RE=0.4 TR=4.00E-08)

.MODEL Q2N2222A NPN IS =3.0611E-14 NF =1.00124 BF =220 IKF=0.52
+ VAF=104 ISE=7.5E-15 NE =1.41 NR =1.005 BR =4 IKR=0.24
+ VAR=28 ISC=1.06525E-11 NC =1.3728 RB =0.13 RE =0.22
+ RC =0.12 CJC=9.12E-12 MJC=0.3508 VJC=0.4089
+ CJE=27.01E-12 TF =0.325E-9 TR =100E-9

