.MODEL DI_SD103ASDM D  ( IS=646n RS=0.120 BV=40.0 IBV=5.00u
+ CJO=29.2  M=0.333 N=1.28 TT=14.4n )

